Metadata-Version: 2.1
Name: geoschem-gcpy
Version: 1.5.0
Home-page: https://github.com/geoschem/gcpy
Author: GEOS-Chem Support Team
Author-email: geos-chem-support@g.harvard.edu
Maintainer: GEOS-Chem Support Team
Maintainer-email: geos-chem-support@g.harvard.edu
License: MIT
Classifier: Development Status :: 5 - Production/Stable
Classifier: License :: OSI Approved :: MIT License
Classifier: Operating System :: OS Independent
Classifier: Intended Audience :: Science/Research
Classifier: Programming Language :: Python
Classifier: Programming Language :: Python :: 3.9
Classifier: Topic :: Scientific/Engineering
License-File: LICENSE.txt
License-File: AUTHORS.txt
Requires-Dist: awscli ==2.13.39
Requires-Dist: cartopy ==0.22.0
Requires-Dist: cf-xarray ==0.8.4
Requires-Dist: dask ==2023.9.2
Requires-Dist: gridspec ==0.1.0
Requires-Dist: ipython ==8.15.0
Requires-Dist: joblib ==1.3.2
Requires-Dist: jupyter ==1.0.0
Requires-Dist: matplotlib ==3.8.0
Requires-Dist: netcdf4 ==1.6.0
Requires-Dist: netcdf-fortran ==4.5.4
Requires-Dist: numpy ==1.26.0
Requires-Dist: pandas ==2.1.1
Requires-Dist: pip ==23.3
Requires-Dist: pylint ==2.17.5
Requires-Dist: pyproj ==3.6.1
Requires-Dist: python ==3.9.18
Requires-Dist: pypdf ==3.17.0
Requires-Dist: recommonmark ==0.7.1
Requires-Dist: requests ==2.32.0
Requires-Dist: scipy ==1.11.2
Requires-Dist: sparselt ==0.1.3
Requires-Dist: tabulate ==0.9.0
Requires-Dist: tk ==8.6.12
Requires-Dist: xarray ==2023.8.0
Requires-Dist: esmf ==8.1.1
Requires-Dist: esmpy ==8.1.1
Requires-Dist: xesmf ==0.5.1
Requires-Dist: docutils ==0.16
Requires-Dist: jinja2 ==3.0.3
Requires-Dist: sphinx ==3.5.4
Requires-Dist: sphinx-autoapi ==1.9.0
Requires-Dist: sphinx-autobuild ==2021.3.14
Requires-Dist: sphinxcontrib-bibtex ==2.2.0
Requires-Dist: sphinx-rtd-theme ==0.5.2

Python toolkit for working with GEOS-Chem output.
